26

  C   0.000000   0.000000   0.000000
  S   1.830000   0.000000   0.000000
  S   2.150691   2.024761   0.000000
  C   2.195474   2.307512   1.807470
  H  -0.354869   0.605780  -0.833785
  H  -0.354869   0.605780   0.833785
  H   2.934080   1.640953   2.252735
  H   1.287040   1.901819   2.252735
  C   2.432723   3.805444   2.074888
  H   2.459397   3.973858   3.151468
  N   1.418027   4.586979   1.353435
  C   3.696719   4.255633   1.319080
  O   4.283188   3.497039   0.666248
  O   4.135358   5.613989   1.404890
  H   0.709885   4.115172   0.809345
  H   1.419852   5.595157   1.414042
  H   4.930750   5.719469   0.877797
  C  -0.501375  -1.456099  -0.000000
  H  -1.591375  -1.456099  -0.000000
  N   0.115273  -2.174589   1.124463
  C   0.144637  -2.208803  -1.178009
  O   0.892290  -1.661514  -1.875927
  O  -0.160728  -3.588268  -1.398754
  H   0.742892  -1.690029   1.750079
  H  -0.100404  -3.148897   1.280374
  H  -0.691506  -4.295448  -1.024894
26

  C   0.000000   0.000000   0.000000
  S   1.830000   0.000000   0.000000
  S   2.150691   2.024761   0.000000
  C   2.195474   2.307512  -1.807470
  H  -0.354869   0.605780  -0.833785
  H  -0.354869   0.605780   0.833785
  H   1.287040   1.901819  -2.252735
  H   2.934080   1.640953  -2.252735
  C   2.432723   3.805444  -2.074888
  H   2.459397   3.973858  -3.151468
  N   3.639264   4.235169  -1.353435
  C   1.369708   4.624195  -1.319080
  O   0.577524   4.083959  -0.666248
  O   1.372292   6.051616  -1.404890
  H   4.166950   3.567627  -0.809345
  H   3.949073   5.194568  -1.414042
  H   0.648425   6.397722  -0.877797
  C  -0.501375  -1.456099  -0.000000
  H  -1.591375  -1.456099  -0.000000
  N   0.115273  -2.174589   1.124463
  C   0.144637  -2.208803  -1.178009
  O   0.892290  -1.661514  -1.875927
  O  -0.160728  -3.588268  -1.398754
  H   0.742892  -1.690029   1.750079
  H  -0.100404  -3.148897   1.280374
  H  -0.691506  -4.295448  -1.024894
26

  C   0.000000   0.000000   0.000000
  S   1.830000   0.000000   0.000000
  S   2.150691   2.024761   0.000000
  C   3.980691   2.024761  -0.000000
  H  -0.354869   0.605780  -0.833785
  H  -0.354869   0.605780   0.833785
  H   4.335560   1.418981  -0.833785
  H   4.335560   1.418981   0.833785
  C   4.482066   3.480860  -0.000000
  H   5.572066   3.480860  -0.000000
  N   3.865417   4.199350   1.124463
  C   3.836053   4.233564  -1.178009
  O   3.088401   3.686275  -1.875927
  O   4.141419   5.613029  -1.398754
  H   3.237799   3.714790   1.750079
  H   4.081095   5.173658   1.280374
  H   3.656577   5.921278  -2.167852
  C  -0.501375  -1.456099  -0.000000
  H  -1.591375  -1.456099  -0.000000
  N   0.115273  -2.174589   1.124463
  C   0.144637  -2.208803  -1.178009
  O   0.892290  -1.661514  -1.875927
  O  -0.160728  -3.588268  -1.398754
  H   0.742892  -1.690029   1.750079
  H  -0.100404  -3.148897   1.280374
  H  -0.691506  -4.295448  -1.024894
26

  C   0.000000   0.000000   0.000000
  S   1.830000   0.000000   0.000000
  S   2.150691   2.024761   0.000000
  C   3.919861   2.034396  -0.467808
  H  -0.354869   0.605780  -0.833785
  H  -0.354869   0.605780   0.833785
  H   4.046602   1.464747  -1.388425
  H   4.472888   1.397230   0.222324
  C   4.412236   3.491920  -0.537020
  H   5.466004   3.497658  -0.815660
  N   4.107317   4.161037   0.735853
  C   3.490523   4.288291  -1.479272
  O   2.586431   3.765779  -1.984444
  O   3.736570   5.677151  -1.714705
  H   3.657938   3.648246   1.480973
  H   4.360811   5.129355   0.870765
  H   3.072862   6.013729  -2.321175
  C  -0.501375  -1.456099  -0.000000
  H  -1.591375  -1.456099  -0.000000
  N   0.115273  -2.174589   1.124463
  C   0.144637  -2.208803  -1.178009
  O   0.892290  -1.661514  -1.875927
  O  -0.160728  -3.588268  -1.398754
  H   0.742892  -1.690029   1.750079
  H  -0.100404  -3.148897   1.280374
  H  -0.691506  -4.295448  -1.024894
26

  C   0.000000   0.000000   0.000000
  S   1.830000   0.000000   0.000000
  S   2.150691   2.024761   0.000000
  C   3.741517   2.062642  -0.903735
  H  -0.354869   0.605780  -0.833785
  H  -0.354869   0.605780   0.833785
  H   3.625706   1.531410  -1.848447
  H   4.449226   1.400978  -0.404288
  C   4.207506   3.524346  -1.037444
  H   5.155047   3.546909  -1.575734
  N   4.241633   4.139764   0.297096
  C   3.079753   4.353350  -1.679725
  O   2.073824   3.846968  -1.957725
  O   3.264750   5.751880  -1.913802
  H   3.994968   3.594866   1.110940
  H   4.526287   5.103146   0.401815
  H   2.469842   6.109238  -2.316314
  C  -0.501375  -1.456099  -0.000000
  H  -1.591375  -1.456099  -0.000000
  N   0.115273  -2.174589   1.124463
  C   0.144637  -2.208803  -1.178009
  O   0.892290  -1.661514  -1.875927
  O  -0.160728  -3.588268  -1.398754
  H   0.742892  -1.690029   1.750079
  H  -0.100404  -3.148897   1.280374
  H  -0.691506  -4.295448  -1.024894
26

  C   0.000000   0.000000   0.000000
  S   1.830000   0.000000   0.000000
  S   2.150691   2.024761   0.000000
  C   3.457813   2.107577  -1.278074
  H  -0.354869   0.605780  -0.833785
  H  -0.354869   0.605780   0.833785
  H   3.101556   1.614428  -2.182499
  H   4.266189   1.429968  -1.003349
  C   3.881827   3.575928  -1.467167
  H   4.660386   3.625256  -2.228424
  N   4.259212   4.136979  -0.161908
  C   2.631738   4.424309  -1.765708
  O   1.585514   3.924309  -1.797589
  O   2.758110   5.832123  -1.982476
  H   4.225923   3.558286   0.665199
  H   4.566245   5.096817  -0.094517
  H   1.888611   6.201296  -2.153599
  C  -0.501375  -1.456099  -0.000000
  H  -1.591375  -1.456099  -0.000000
  N   0.115273  -2.174589   1.124463
  C   0.144637  -2.208803  -1.178009
  O   0.892290  -1.661514  -1.875927
  O  -0.160728  -3.588268  -1.398754
  H   0.742892  -1.690029   1.750079
  H  -0.100404  -3.148897   1.280374
  H  -0.691506  -4.295448  -1.024894
26

  C   0.000000   0.000000   0.000000
  S   1.830000   0.000000   0.000000
  S   2.150691   2.024761   0.000000
  C   3.088082   2.166136  -1.565315
  H  -0.354869   0.605780  -0.833785
  H  -0.354869   0.605780   0.833785
  H   2.509871   1.708141  -2.367818
  H   3.936249   1.482225  -1.534033
  C   3.457394   3.643152  -1.796906
  H   4.015731   3.727359  -2.729251
  N   4.158855   4.152874  -0.609878
  C   2.177008   4.496331  -1.731361
  O   1.154779   3.992531  -1.514951
  O   2.251179   5.912414  -1.916048
  H   4.335061   3.541000   0.174126
  H   4.477964   5.110800  -0.584409
  H   1.368781   6.283629  -1.844121
  C  -0.501375  -1.456099  -0.000000
  H  -1.591375  -1.456099  -0.000000
  N   0.115273  -2.174589   1.124463
  C   0.144637  -2.208803  -1.178009
  O   0.892290  -1.661514  -1.875927
  O  -0.160728  -3.588268  -1.398754
  H   0.742892  -1.690029   1.750079
  H  -0.100404  -3.148897   1.280374
  H  -0.691506  -4.295448  -1.024894
26

  C   0.000000   0.000000   0.000000
  S   1.830000   0.000000   0.000000
  S   2.150691   2.024761   0.000000
  C   2.657522   2.234330  -1.745882
  H  -0.354869   0.605780  -0.833785
  H  -0.354869   0.605780   0.833785
  H   1.890973   1.806165  -2.391774
  H   3.481892   1.554188  -1.960175
  C   2.963132   3.721435  -2.004188
  H   3.265015   3.846261  -3.044084
  N   3.947403   4.186365  -1.016285
  C   1.746553   4.564508  -1.579025
  O   0.810973   4.046984  -1.129071
  O   1.778502   5.987278  -1.719044
  H   4.314947   3.544186  -0.328814
  H   4.267457   5.144141  -1.034474
  H   0.945777   6.350626  -1.408968
  C  -0.501375  -1.456099  -0.000000
  H  -1.591375  -1.456099  -0.000000
  N   0.115273  -2.174589   1.124463
  C   0.144637  -2.208803  -1.178009
  O   0.892290  -1.661514  -1.875927
  O  -0.160728  -3.588268  -1.398754
  H   0.742892  -1.690029   1.750079
  H  -0.100404  -3.148897   1.280374
  H  -0.691506  -4.295448  -1.024894
26

  C   0.000000   0.000000   0.000000
  S   1.830000   0.000000   0.000000
  S   2.150691   2.024761   0.000000
  C   2.195474   2.307512  -1.807470
  H  -0.354869   0.605780  -0.833785
  H  -0.354869   0.605780   0.833785
  H   1.287040   1.901819  -2.252735
  H   2.934080   1.640953  -2.252735
  C   2.432723   3.805444  -2.074888
  H   2.459397   3.973858  -3.151468
  N   3.639264   4.235169  -1.353435
  C   1.369708   4.624195  -1.319080
  O   0.577524   4.083959  -0.666248
  O   1.372292   6.051616  -1.404890
  H   4.166950   3.567627  -0.809345
  H   3.949073   5.194568  -1.414042
  H   0.648425   6.397722  -0.877797
  C  -0.501375  -1.456099  -0.000000
  H  -1.591375  -1.456099  -0.000000
  N   0.115273  -2.174589   1.124463
  C   0.144637  -2.208803  -1.178009
  O   0.892290  -1.661514  -1.875927
  O  -0.160728  -3.588268  -1.398754
  H   0.742892  -1.690029   1.750079
  H  -0.100404  -3.148897   1.280374
  H  -0.691506  -4.295448  -1.024894
26

  C   0.000000   0.000000   0.000000
  S   1.830000   0.000000   0.000000
  S   2.150691   2.024761   0.000000
  C   1.733426   2.380693  -1.745882
  H  -0.354869   0.605780  -0.833785
  H  -0.354869   0.605780   0.833785
  H   0.739228   1.988584  -1.960175
  H   2.330147   1.736607  -2.391774
  C   1.902314   3.889452  -2.004188
  H   1.653779   4.101455  -3.044084
  N   3.255439   4.295961  -1.598350
  C   1.072154   4.671323  -0.969242
  O   0.470344   4.100935  -0.158020
  O   1.060231   6.101041  -0.994995
  H   3.901157   3.609724  -1.234721
  H   3.544507   5.258645  -1.697245
  H   0.496990   6.421707  -0.286806
  C  -0.501375  -1.456099  -0.000000
  H  -1.591375  -1.456099  -0.000000
  N   0.115273  -2.174589   1.124463
  C   0.144637  -2.208803  -1.178009
  O   0.892290  -1.661514  -1.875927
  O  -0.160728  -3.588268  -1.398754
  H   0.742892  -1.690029   1.750079
  H  -0.100404  -3.148897   1.280374
  H  -0.691506  -4.295448  -1.024894
26

  C   0.000000   0.000000   0.000000
  S   1.830000   0.000000   0.000000
  S   2.150691   2.024761   0.000000
  C   1.302866   2.448887  -1.565315
  H  -0.354869   0.605780  -0.833785
  H  -0.354869   0.605780   0.833785
  H   0.284871   2.060547  -1.534033
  H   1.711249   1.834631  -2.367818
  C   1.408052   3.967736  -1.796906
  H   0.903063   4.220357  -2.729251
  N   2.822084   4.364598  -1.734340
  C   0.874168   4.702681  -0.553353
  O   0.496734   4.096755   0.360976
  O   0.863585   6.132187  -0.517293
  H   3.535681   3.667610  -1.575953
  H   3.081331   5.332005  -1.864783
  H   0.501791   6.420947   0.323731
  C  -0.501375  -1.456099  -0.000000
  H  -1.591375  -1.456099  -0.000000
  N   0.115273  -2.174589   1.124463
  C   0.144637  -2.208803  -1.178009
  O   0.892290  -1.661514  -1.875927
  O  -0.160728  -3.588268  -1.398754
  H   0.742892  -1.690029   1.750079
  H  -0.100404  -3.148897   1.280374
  H  -0.691506  -4.295448  -1.024894
26

  C   0.000000   0.000000   0.000000
  S   1.830000   0.000000   0.000000
  S   2.150691   2.024761   0.000000
  C   0.933135   2.507446  -1.278074
  H  -0.354869   0.605780  -0.833785
  H  -0.354869   0.605780   0.833785
  H  -0.045069   2.112804  -1.003349
  H   1.119564   1.928344  -2.182499
  C   0.983619   4.034959  -1.467167
  H   0.258408   4.322460  -2.228424
  N   2.368731   4.436402  -1.752138
  C   0.789244   4.716131  -0.099753
  O   0.654898   4.071704   0.855373
  O   0.795757   6.142930  -0.004339
  H   3.095427   3.737339  -1.809786
  H   2.591108   5.409648  -1.905240
  H   0.662502   6.395493   0.912207
  C  -0.501375  -1.456099  -0.000000
  H  -1.591375  -1.456099  -0.000000
  N   0.115273  -2.174589   1.124463
  C   0.144637  -2.208803  -1.178009
  O   0.892290  -1.661514  -1.875927
  O  -0.160728  -3.588268  -1.398754
  H   0.742892  -1.690029   1.750079
  H  -0.100404  -3.148897   1.280374
  H  -0.691506  -4.295448  -1.024894
26

  C   0.000000   0.000000   0.000000
  S   1.830000   0.000000   0.000000
  S   2.150691   2.024761   0.000000
  C   0.649431   2.552381  -0.903735
  H  -0.354869   0.605780  -0.833785
  H  -0.354869   0.605780   0.833785
  H  -0.228106   2.141794  -0.404288
  H   0.595413   2.011362  -1.848447
  C   0.657940   4.086542  -1.037444
  H  -0.236253   4.400807  -1.575734
  N   1.926276   4.506480  -1.650531
  C   0.823168   4.710758   0.360645
  O   0.934057   4.027490   1.291477
  O   0.861367   6.132538   0.508912
  H   2.610400   3.814160  -1.920285
  H   2.107248   5.486284  -1.815857
  H   0.968171   6.347080   1.438517
  C  -0.501375  -1.456099  -0.000000
  H  -1.591375  -1.456099  -0.000000
  N   0.115273  -2.174589   1.124463
  C   0.144637  -2.208803  -1.178009
  O   0.892290  -1.661514  -1.875927
  O  -0.160728  -3.588268  -1.398754
  H   0.742892  -1.690029   1.750079
  H  -0.100404  -3.148897   1.280374
  H  -0.691506  -4.295448  -1.024894
26

  C   0.000000   0.000000   0.000000
  S   1.830000   0.000000   0.000000
  S   2.150691   2.024761   0.000000
  C   0.471087   2.580628  -0.467808
  H  -0.354869   0.605780  -0.833785
  H  -0.354869   0.605780   0.833785
  H  -0.251768   2.145542   0.222324
  H   0.174518   2.078025  -1.388425
  C   0.453210   4.118968  -0.537020
  H  -0.547209   4.450058  -0.815660
  N   1.524872   4.570056  -1.436442
  C   0.973629   4.686928   0.796466
  O   1.315185   3.967125   1.639569
  O   1.055946   6.101720   0.987481
  H   2.113653   3.892837  -1.899920
  H   1.662724   5.556690  -1.602727
  H   1.397966   6.279007   1.866794
  C  -0.501375  -1.456099  -0.000000
  H  -1.591375  -1.456099  -0.000000
  N   0.115273  -2.174589   1.124463
  C   0.144637  -2.208803  -1.178009
  O   0.892290  -1.661514  -1.875927
  O  -0.160728  -3.588268  -1.398754
  H   0.742892  -1.690029   1.750079
  H  -0.100404  -3.148897   1.280374
  H  -0.691506  -4.295448  -1.024894
26

  C   0.000000   0.000000   0.000000
  S   1.830000   0.000000   0.000000
  S   2.150691   2.024761   0.000000
  C   0.410257   2.590262   0.000000
  H  -0.354869   0.605780  -0.833785
  H  -0.354869   0.605780   0.833785
  H  -0.114440   2.123791   0.833785
  H  -0.114440   2.123791  -0.833785
  C   0.383381   4.130028   0.000000
  H  -0.653271   4.466856   0.000000
  N   1.191874   4.622798  -1.124463
  C   1.230373   4.646263   1.178009
  O   1.772311   3.894723   1.875927
  O   1.366232   6.052575   1.398754
  H   1.639037   3.968009  -1.750079
  H   1.287830   5.616067  -1.280374
  H   1.922597   6.195913   2.167852
  C  -0.501375  -1.456099  -0.000000
  H  -1.591375  -1.456099  -0.000000
  N   0.115273  -2.174589   1.124463
  C   0.144637  -2.208803  -1.178009
  O   0.892290  -1.661514  -1.875927
  O  -0.160728  -3.588268  -1.398754
  H   0.742892  -1.690029   1.750079
  H  -0.100404  -3.148897   1.280374
  H  -0.691506  -4.295448  -1.024894
26

  C   0.000000   0.000000   0.000000
  S   1.830000   0.000000   0.000000
  S   2.150691   2.024761   0.000000
  C   0.471087   2.580628   0.467808
  H  -0.354869   0.605780  -0.833785
  H  -0.354869   0.605780   0.833785
  H   0.174518   2.078025   1.388425
  H  -0.251768   2.145542  -0.222324
  C   0.453210   4.118968   0.537020
  H  -0.547209   4.450058   0.815660
  N   0.949974   4.661111  -0.735853
  C   1.575904   4.591537   1.479272
  O   2.274282   3.815219   1.984444
  O   1.771080   5.988454   1.714705
  H   1.218898   4.034552  -1.480973
  H   1.008113   5.660370  -0.870765
  H   2.506313   6.103462   2.321175
  C  -0.501375  -1.456099  -0.000000
  H  -1.591375  -1.456099  -0.000000
  N   0.115273  -2.174589   1.124463
  C   0.144637  -2.208803  -1.178009
  O   0.892290  -1.661514  -1.875927
  O  -0.160728  -3.588268  -1.398754
  H   0.742892  -1.690029   1.750079
  H  -0.100404  -3.148897   1.280374
  H  -0.691506  -4.295448  -1.024894
26

  C   0.000000   0.000000   0.000000
  S   1.830000   0.000000   0.000000
  S   2.150691   2.024761   0.000000
  C   0.649431   2.552381   0.903735
  H  -0.354869   0.605780  -0.833785
  H  -0.354869   0.605780   0.833785
  H   0.595413   2.011362   1.848447
  H  -0.228106   2.141794   0.404288
  C   0.657940   4.086542   1.037444
  H  -0.236253   4.400807   1.575734
  N   0.815658   4.682385  -0.297096
  C   1.986673   4.526477   1.679725
  O   2.786888   3.734030   1.957725
  O   2.242901   5.913725   1.913802
  H   0.881868   4.087933  -1.110940
  H   0.842638   5.686579  -0.401815
  H   3.109333   6.007953   2.316314
  C  -0.501375  -1.456099  -0.000000
  H  -1.591375  -1.456099  -0.000000
  N   0.115273  -2.174589   1.124463
  C   0.144637  -2.208803  -1.178009
  O   0.892290  -1.661514  -1.875927
  O  -0.160728  -3.588268  -1.398754
  H   0.742892  -1.690029   1.750079
  H  -0.100404  -3.148897   1.280374
  H  -0.691506  -4.295448  -1.024894
26

  C   0.000000   0.000000   0.000000
  S   1.830000   0.000000   0.000000
  S   2.150691   2.024761   0.000000
  C   0.933135   2.507446   1.278074
  H  -0.354869   0.605780  -0.833785
  H  -0.354869   0.605780   0.833785
  H   1.119564   1.928344   2.182499
  H  -0.045069   2.112804   1.003349
  C   0.983619   4.034959   1.467167
  H   0.258408   4.322460   2.228424
  N   0.798079   4.685169   0.161908
  C   2.434689   4.455518   1.765708
  O   3.275198   3.656689   1.797589
  O   2.749540   5.833481   1.982476
  H   0.650913   4.124512  -0.665199
  H   0.802679   5.692908   0.094517
  H   3.690563   5.915895   2.153599
  C  -0.501375  -1.456099  -0.000000
  H  -1.591375  -1.456099  -0.000000
  N   0.115273  -2.174589   1.124463
  C   0.144637  -2.208803  -1.178009
  O   0.892290  -1.661514  -1.875927
  O  -0.160728  -3.588268  -1.398754
  H   0.742892  -1.690029   1.750079
  H  -0.100404  -3.148897   1.280374
  H  -0.691506  -4.295448  -1.024894
26

  C   0.000000   0.000000   0.000000
  S   1.830000   0.000000   0.000000
  S   2.150691   2.024761   0.000000
  C   1.302866   2.448887   1.565315
  H  -0.354869   0.605780  -0.833785
  H  -0.354869   0.605780   0.833785
  H   1.711249   1.834631   2.367818
  H   0.284871   2.060547   1.534033
  C   1.408052   3.967736   1.796906
  H   0.903063   4.220357   2.729251
  N   0.898436   4.669274   0.609878
  C   2.889418   4.383496   1.731361
  O   3.705933   3.588468   1.514951
  O   3.256471   5.753191   1.916048
  H   0.541774   4.141798  -0.174126
  H   0.890961   5.678925   0.584409
  H   4.210393   5.833562   1.844121
  C  -0.501375  -1.456099  -0.000000
  H  -1.591375  -1.456099  -0.000000
  N   0.115273  -2.174589   1.124463
  C   0.144637  -2.208803  -1.178009
  O   0.892290  -1.661514  -1.875927
  O  -0.160728  -3.588268  -1.398754
  H   0.742892  -1.690029   1.750079
  H  -0.100404  -3.148897   1.280374
  H  -0.691506  -4.295448  -1.024894
26

  C   0.000000   0.000000   0.000000
  S   1.830000   0.000000   0.000000
  S   2.150691   2.024761   0.000000
  C   1.733426   2.380693   1.745882
  H  -0.354869   0.605780  -0.833785
  H  -0.354869   0.605780   0.833785
  H   2.330147   1.736607   2.391774
  H   0.739228   1.988584   1.960175
  C   1.902314   3.889452   2.004188
  H   1.653779   4.101455   3.044084
  N   1.109888   4.635783   1.016285
  C   3.319873   4.315319   1.579025
  O   4.049739   3.534014   1.129071
  O   3.729148   5.678326   1.719044
  H   0.561889   4.138612   0.328814
  H   1.101467   5.645584   1.034474
  H   4.633398   5.766565   1.408968
  C  -0.501375  -1.456099  -0.000000
  H  -1.591375  -1.456099  -0.000000
  N   0.115273  -2.174589   1.124463
  C   0.144637  -2.208803  -1.178009
  O   0.892290  -1.661514  -1.875927
  O  -0.160728  -3.588268  -1.398754
  H   0.742892  -1.690029   1.750079
  H  -0.100404  -3.148897   1.280374
  H  -0.691506  -4.295448  -1.024894
26

  C   0.000000   0.000000   0.000000
  S   1.830000   0.000000   0.000000
  S   2.150691   2.024761   0.000000
  C   2.195474   2.307512   1.807470
  H  -0.354869   0.605780  -0.833785
  H  -0.354869   0.605780   0.833785
  H   2.934080   1.640953   2.252735
  H   1.287040   1.901819   2.252735
  C   2.432723   3.805444   2.074888
  H   2.459397   3.973858   3.151468
  N   1.418027   4.586979   1.353435
  C   3.696719   4.255633   1.319080
  O   4.283188   3.497039   0.666248
  O   4.135358   5.613989   1.404890
  H   0.709885   4.115172   0.809345
  H   1.419852   5.595157   1.414042
  H   4.930750   5.719469   0.877797
  C  -0.501375  -1.456099  -0.000000
  H  -1.591375  -1.456099  -0.000000
  N   0.115273  -2.174589   1.124463
  C   0.144637  -2.208803  -1.178009
  O   0.892290  -1.661514  -1.875927
  O  -0.160728  -3.588268  -1.398754
  H   0.742892  -1.690029   1.750079
  H  -0.100404  -3.148897   1.280374
  H  -0.691506  -4.295448  -1.024894
26

  C   0.000000   0.000000   0.000000
  S   1.830000   0.000000   0.000000
  S   2.150691   2.024761   0.000000
  C   2.657522   2.234330   1.745882
  H  -0.354869   0.605780  -0.833785
  H  -0.354869   0.605780   0.833785
  H   3.481892   1.554188   1.960175
  H   1.890973   1.806165   2.391774
  C   2.963132   3.721435   2.004188
  H   3.265015   3.846261   3.044084
  N   1.801852   4.526187   1.598350
  C   3.994273   4.208505   0.969242
  O   4.390369   3.480064   0.158020
  O   4.447419   5.564563   0.994995
  H   0.975679   4.073074   1.234721
  H   1.824417   5.531080   1.697245
  H   5.082185   5.695484   0.286806
  C  -0.501375  -1.456099  -0.000000
  H  -1.591375  -1.456099  -0.000000
  N   0.115273  -2.174589   1.124463
  C   0.144637  -2.208803  -1.178009
  O   0.892290  -1.661514  -1.875927
  O  -0.160728  -3.588268  -1.398754
  H   0.742892  -1.690029   1.750079
  H  -0.100404  -3.148897   1.280374
  H  -0.691506  -4.295448  -1.024894
26

  C   0.000000   0.000000   0.000000
  S   1.830000   0.000000   0.000000
  S   2.150691   2.024761   0.000000
  C   3.088082   2.166136   1.565315
  H  -0.354869   0.605780  -0.833785
  H  -0.354869   0.605780   0.833785
  H   3.936249   1.482225   1.534033
  H   2.509871   1.708141   2.367818
  C   3.457394   3.643152   1.796906
  H   4.015731   3.727359   2.729251
  N   2.235207   4.457550   1.734340
  C   4.192258   4.177147   0.553353
  O   4.363978   3.484243  -0.360976
  O   4.644065   5.533418   0.517293
  H   1.341155   4.015189   1.575953
  H   2.287594   5.457720   1.864783
  H   5.077383   5.696244  -0.323731
  C  -0.501375  -1.456099  -0.000000
  H  -1.591375  -1.456099  -0.000000
  N   0.115273  -2.174589   1.124463
  C   0.144637  -2.208803  -1.178009
  O   0.892290  -1.661514  -1.875927
  O  -0.160728  -3.588268  -1.398754
  H   0.742892  -1.690029   1.750079
  H  -0.100404  -3.148897   1.280374
  H  -0.691506  -4.295448  -1.024894
26

  C   0.000000   0.000000   0.000000
  S   1.830000   0.000000   0.000000
  S   2.150691   2.024761   0.000000
  C   3.457813   2.107577   1.278074
  H  -0.354869   0.605780  -0.833785
  H  -0.354869   0.605780   0.833785
  H   4.266189   1.429968   1.003349
  H   3.101556   1.614428   2.182499
  C   3.881827   3.575928   1.467167
  H   4.660386   3.625256   2.228424
  N   2.688560   4.385746   1.752138
  C   4.277183   4.163696   0.099753
  O   4.205814   3.509294  -0.855373
  O   4.711893   5.522675   0.004339
  H   1.781408   3.945459   1.809786
  H   2.777816   5.380077   1.905240
  H   4.916672   5.721698  -0.912207
  C  -0.501375  -1.456099  -0.000000
  H  -1.591375  -1.456099  -0.000000
  N   0.115273  -2.174589   1.124463
  C   0.144637  -2.208803  -1.178009
  O   0.892290  -1.661514  -1.875927
  O  -0.160728  -3.588268  -1.398754
  H   0.742892  -1.690029   1.750079
  H  -0.100404  -3.148897   1.280374
  H  -0.691506  -4.295448  -1.024894
26

  C   0.000000   0.000000   0.000000
  S   1.830000   0.000000   0.000000
  S   2.150691   2.024761   0.000000
  C   3.741517   2.062642   0.903735
  H  -0.354869   0.605780  -0.833785
  H  -0.354869   0.605780   0.833785
  H   4.449226   1.400978   0.404288
  H   3.625706   1.531410   1.848447
  C   4.207506   3.524346   1.037444
  H   5.155047   3.546909   1.575734
  N   3.131015   4.315668   1.650531
  C   4.243258   4.169069  -0.360645
  O   3.926656   3.553509  -1.291477
  O   4.646283   5.533066  -0.508912
  H   2.266436   3.868639   1.920285
  H   3.261676   5.303441   1.815857
  H   4.611004   5.770112  -1.438517
  C  -0.501375  -1.456099  -0.000000
  H  -1.591375  -1.456099  -0.000000
  N   0.115273  -2.174589   1.124463
  C   0.144637  -2.208803  -1.178009
  O   0.892290  -1.661514  -1.875927
  O  -0.160728  -3.588268  -1.398754
  H   0.742892  -1.690029   1.750079
  H  -0.100404  -3.148897   1.280374
  H  -0.691506  -4.295448  -1.024894
26

  C   0.000000   0.000000   0.000000
  S   1.830000   0.000000   0.000000
  S   2.150691   2.024761   0.000000
  C   3.919861   2.034396   0.467808
  H  -0.354869   0.605780  -0.833785
  H  -0.354869   0.605780   0.833785
  H   4.472888   1.397230  -0.222324
  H   4.046602   1.464747   1.388425
  C   4.412236   3.491920   0.537020
  H   5.466004   3.497658   0.815660
  N   3.532419   4.252092   1.436442
  C   4.092797   4.192900  -0.796466
  O   3.545527   3.613873  -1.639569
  O   4.451705   5.563885  -0.987481
  H   2.763183   3.789961   1.899920
  H   3.706201   5.233035   1.602727
  H   4.181209   5.838184  -1.866794
  C  -0.501375  -1.456099  -0.000000
  H  -1.591375  -1.456099  -0.000000
  N   0.115273  -2.174589   1.124463
  C   0.144637  -2.208803  -1.178009
  O   0.892290  -1.661514  -1.875927
  O  -0.160728  -3.588268  -1.398754
  H   0.742892  -1.690029   1.750079
  H  -0.100404  -3.148897   1.280374
  H  -0.691506  -4.295448  -1.024894
26

  C   0.000000   0.000000   0.000000
  S   1.830000   0.000000   0.000000
  S   2.150691   2.024761   0.000000
  C   3.980691   2.024761   0.000000
  H  -0.354869   0.605780  -0.833785
  H  -0.354869   0.605780   0.833785
  H   4.335560   1.418981  -0.833785
  H   4.335560   1.418981   0.833785
  C   4.482066   3.480860   0.000000
  H   5.572066   3.480860   0.000000
  N   3.865417   4.199350   1.124463
  C   3.836053   4.233564  -1.178009
  O   3.088401   3.686275  -1.875927
  O   4.141419   5.613029  -1.398754
  H   3.237799   3.714790   1.750079
  H   4.081095   5.173658   1.280374
  H   3.656577   5.921278  -2.167852
  C  -0.501375  -1.456099  -0.000000
  H  -1.591375  -1.456099  -0.000000
  N   0.115273  -2.174589   1.124463
  C   0.144637  -2.208803  -1.178009
  O   0.892290  -1.661514  -1.875927
  O  -0.160728  -3.588268  -1.398754
  H   0.742892  -1.690029   1.750079
  H  -0.100404  -3.148897   1.280374
  H  -0.691506  -4.295448  -1.024894
